#!/sbin/sh

#################
# Initialization
#################

TMPDIR=/dev/tmp
PERSISTDIR=/sbin/.magisk/mirror/persist

rm -rf $TMPDIR 2>/dev/null
mkdir -p $TMPDIR

# echo before loading util_functions
ui_print() { echo "$1"; }

require_new_magisk() {
  ui_print "*******************************"
  ui_print " Please install Magisk v20.4+! "
  ui_print "*******************************"
  exit 1
}

##############
# Environment
##############

OUTFD=$2
ZIPFILE=$3

mount /data 2>/dev/null

# Load utility functions
[ -f /data/adb/magisk/util_functions.sh ] || require_new_magisk
. /data/adb/magisk/util_functions.sh
[ $MAGISK_VER_CODE -lt 20400 ] && require_new_magisk

if [ -f /data/adb/ap/util_functions.sh ]; then
  . /data/adb/ap/util_functions.sh
fi

setup_flashable $OUTFD $ZIPFILE

##########
# Install
##########

ui_print "- Installing Thor Hotkeys"

# Default permissions
set_perm_recursive $MODPATH 0 0 0755 0644

# Extract module files
unzip -o "$ZIPFILE" 'system/*' -d $MODPATH >/dev/null 2>&1
unzip -o "$ZIPFILE" 'module.prop' -d $MODPATH >/dev/null 2>&1
unzip -o "$ZIPFILE" 'service.sh' -d $MODPATH >/dev/null 2>&1
unzip -o "$ZIPFILE" 'post-fs-data.sh' -d $MODPATH >/dev/null 2>&1

# Set permissions for the APK
set_perm_recursive $MODPATH/system/priv-app 0 0 0755 0644

ui_print "- Done"
